Circuit: * C:\Users\Edison-MSI\Documents\My Files\UNSAAC\21-1\Laboratorio de Circuitos Electrónicos I\Experiencia 3\rectificador2_ondaCompleta.asc

.OP point found by inspection.

vmax: MAX(v(i))=22.2643 FROM 0 TO 0.5
vmin: MIN(v(i))=-1.81358e-016 FROM 0 TO 0.5
vrpp: vmax - vmin=22.2643


Date: Mon Sep 06 03:29:56 2021
Total elapsed time: 0.076 seconds.

tnom = 27
temp = 27
method = modified trap
totiter = 6640
traniter = 6640
tranpoints = 2308
accept = 1809
rejected = 499
matrix size = 9
fillins = 5
solver = Normal
Matrix Compiler1: 622 bytes object code size  0.1/0.1/[0.1]
Matrix Compiler2: off  [0.1]/0.1/0.1

